# DIS package for  MODFLOW-NWT, generated by Flopy.
         1        22        11        12         4         2
  0
CONSTANT    5.000000E+02                           #delr                          
CONSTANT    5.000000E+02                           #delc                          
INTERNAL               1  (11E15.6) -1 #model_top                     
   1.000000E+03   1.000000E+03   1.000000E+03   1.000000E+03   1.000000E+03   1.000000E+03   1.000000E+03   1.000000E+03   1.000000E+03   1.000000E+03   1.000000E+03
   1.002000E+03   1.002000E+03   1.002000E+03   1.002000E+03   1.002000E+03   1.002000E+03   1.002000E+03   1.002000E+03   1.002000E+03   1.002000E+03   1.002000E+03
   1.004000E+03   1.004000E+03   1.004000E+03   1.004000E+03   1.004000E+03   1.004000E+03   1.004000E+03   1.004000E+03   1.004000E+03   1.004000E+03   1.004000E+03
   1.006000E+03   1.006000E+03   1.006000E+03   1.006000E+03   1.006000E+03   1.006000E+03   1.006000E+03   1.006000E+03   1.006000E+03   1.006000E+03   1.006000E+03
   1.008000E+03   1.008000E+03   1.008000E+03   1.008000E+03   1.008000E+03   1.008000E+03   1.008000E+03   1.008000E+03   1.008000E+03   1.008000E+03   1.008000E+03
   1.010000E+03   1.010000E+03   1.010000E+03   1.010000E+03   1.010000E+03   1.010000E+03   1.010000E+03   1.010000E+03   1.010000E+03   1.010000E+03   1.010000E+03
   1.012000E+03   1.012000E+03   1.012000E+03   1.012000E+03   1.012000E+03   1.012000E+03   1.012000E+03   1.012000E+03   1.012000E+03   1.012000E+03   1.012000E+03
   1.014000E+03   1.014000E+03   1.014000E+03   1.014000E+03   1.014000E+03   1.014000E+03   1.014000E+03   1.014000E+03   1.014000E+03   1.014000E+03   1.014000E+03
   1.016000E+03   1.016000E+03   1.016000E+03   1.016000E+03   1.016000E+03   1.016000E+03   1.016000E+03   1.016000E+03   1.016000E+03   1.016000E+03   1.016000E+03
   1.018000E+03   1.018000E+03   1.018000E+03   1.018000E+03   1.018000E+03   1.018000E+03   1.018000E+03   1.018000E+03   1.018000E+03   1.018000E+03   1.018000E+03
   1.020000E+03   1.020000E+03   1.020000E+03   1.020000E+03   1.020000E+03   1.020000E+03   1.020000E+03   1.020000E+03   1.020000E+03   1.020000E+03   1.020000E+03
   1.020000E+03   1.020000E+03   1.020000E+03   1.020000E+03   1.020000E+03   1.020000E+03   1.020000E+03   1.020000E+03   1.020000E+03   1.020000E+03   1.020000E+03
   1.018000E+03   1.018000E+03   1.018000E+03   1.018000E+03   1.018000E+03   1.018000E+03   1.018000E+03   1.018000E+03   1.018000E+03   1.018000E+03   1.018000E+03
   1.016000E+03   1.016000E+03   1.016000E+03   1.016000E+03   1.016000E+03   1.016000E+03   1.016000E+03   1.016000E+03   1.016000E+03   1.016000E+03   1.016000E+03
   1.014000E+03   1.014000E+03   1.014000E+03   1.014000E+03   1.014000E+03   1.014000E+03   1.014000E+03   1.014000E+03   1.014000E+03   1.014000E+03   1.014000E+03
   1.012000E+03   1.012000E+03   1.012000E+03   1.012000E+03   1.012000E+03   1.012000E+03   1.012000E+03   1.012000E+03   1.012000E+03   1.012000E+03   1.012000E+03
   1.010000E+03   1.010000E+03   1.010000E+03   1.010000E+03   1.010000E+03   1.010000E+03   1.010000E+03   1.010000E+03   1.010000E+03   1.010000E+03   1.010000E+03
   1.008000E+03   1.008000E+03   1.008000E+03   1.008000E+03   1.008000E+03   1.008000E+03   1.008000E+03   1.008000E+03   1.008000E+03   1.008000E+03   1.008000E+03
   1.006000E+03   1.006000E+03   1.006000E+03   1.006000E+03   1.006000E+03   1.006000E+03   1.006000E+03   1.006000E+03   1.006000E+03   1.006000E+03   1.006000E+03
   1.004000E+03   1.004000E+03   1.004000E+03   1.004000E+03   1.004000E+03   1.004000E+03   1.004000E+03   1.004000E+03   1.004000E+03   1.004000E+03   1.004000E+03
   1.002000E+03   1.002000E+03   1.002000E+03   1.002000E+03   1.002000E+03   1.002000E+03   1.002000E+03   1.002000E+03   1.002000E+03   1.002000E+03   1.002000E+03
   1.000000E+03   1.000000E+03   1.000000E+03   1.000000E+03   1.000000E+03   1.000000E+03   1.000000E+03   1.000000E+03   1.000000E+03   1.000000E+03   1.000000E+03
CONSTANT    9.800000E+02                           #botm layer 1                  
    365.250000             1  1.000000  SS 
    365.250000             1  1.000000  TR 
    365.250000             1  1.000000  TR 
    365.250000             1  1.000000  TR 
    365.250000             1  1.000000  TR 
    365.250000             1  1.000000  TR 
    365.250000             1  1.000000  TR 
    365.250000             1  1.000000  TR 
    365.250000             1  1.000000  TR 
    365.250000             1  1.000000  TR 
    365.250000             1  1.000000  TR 
    365.250000             1  1.000000  TR 
