# BAS6 package for  MODFLOW-NWT, generated by Flopy.
 FREE
INTERNAL               1    (11I10) -1 #ibound layer 1                
         0         1         1         1         1         1         1         1         1         1         0
         0         1         1         1         1         1         1         1         1         1         0
         0         1         1         1         1         1         1         1         1         1         0
         0         1         1         1         1         1         1         1         1         1         0
         0         1         1         1         1         1         1         1         1         1         0
         0         1         1         1         1         1         1         1         1         1         0
         0         1         1         1         1         1         1         1         1         1         0
         0         1         1         1         1         1         1         1         1         1         0
         0         1         1         1         1         1         1         1         1         1         0
         0         1         1         1         1         1         1         1         1         1         0
         0         1         1         1         1         1         1         1         1         1         0
         0         1         1         1         1         1         1         1         1         1         0
         0         1         1         1         1         1         1         1         1         1         0
         0         1         1         1         1         1         1         1         1         1         0
         0         1         1         1         1         1         1         1         1         1         0
         0         1         1         1         1         1         1         1         1         1         0
         0         1         1         1         1         1         1         1         1         1         0
         0         1         1         1         1         1         1         1         1         1         0
         0         1         1         1         1         1         1         1         1         1         0
         0         1         1         1         1         1         1         1         1         1         0
         0         1         1         1         1         1         1         1         1         1         0
         0         1         1         1         1         1         1         1         1         1         0
        -999.99
INTERNAL               1  (11E15.6) -1 #strt layer 1                  
   9.900000E+02   9.900000E+02   9.900000E+02   9.900000E+02   9.900000E+02   9.900000E+02   9.900000E+02   9.900000E+02   9.900000E+02   9.900000E+02   9.900000E+02
   1.002000E+03   1.002000E+03   1.002000E+03   1.002000E+03   1.002000E+03   1.002000E+03   1.002000E+03   1.002000E+03   1.002000E+03   1.002000E+03   1.002000E+03
   1.004000E+03   1.004000E+03   1.004000E+03   1.004000E+03   1.004000E+03   1.004000E+03   1.004000E+03   1.004000E+03   1.004000E+03   1.004000E+03   1.004000E+03
   1.006000E+03   1.006000E+03   1.006000E+03   1.006000E+03   1.006000E+03   1.006000E+03   1.006000E+03   1.006000E+03   1.006000E+03   1.006000E+03   1.006000E+03
   1.008000E+03   1.008000E+03   1.008000E+03   1.008000E+03   1.008000E+03   1.008000E+03   1.008000E+03   1.008000E+03   1.008000E+03   1.008000E+03   1.008000E+03
   1.010000E+03   1.010000E+03   1.010000E+03   1.010000E+03   1.010000E+03   1.010000E+03   1.010000E+03   1.010000E+03   1.010000E+03   1.010000E+03   1.010000E+03
   1.012000E+03   1.012000E+03   1.012000E+03   1.012000E+03   1.012000E+03   1.012000E+03   1.012000E+03   1.012000E+03   1.012000E+03   1.012000E+03   1.012000E+03
   1.014000E+03   1.014000E+03   1.014000E+03   1.014000E+03   1.014000E+03   1.014000E+03   1.014000E+03   1.014000E+03   1.014000E+03   1.014000E+03   1.014000E+03
   1.016000E+03   1.016000E+03   1.016000E+03   1.016000E+03   1.016000E+03   1.016000E+03   1.016000E+03   1.016000E+03   1.016000E+03   1.016000E+03   1.016000E+03
   1.018000E+03   1.018000E+03   1.018000E+03   1.018000E+03   1.018000E+03   1.018000E+03   1.018000E+03   1.018000E+03   1.018000E+03   1.018000E+03   1.018000E+03
   1.020000E+03   1.020000E+03   1.020000E+03   1.020000E+03   1.020000E+03   1.020000E+03   1.020000E+03   1.020000E+03   1.020000E+03   1.020000E+03   1.020000E+03
   1.020000E+03   1.020000E+03   1.020000E+03   1.020000E+03   1.020000E+03   1.020000E+03   1.020000E+03   1.020000E+03   1.020000E+03   1.020000E+03   1.020000E+03
   1.018000E+03   1.018000E+03   1.018000E+03   1.018000E+03   1.018000E+03   1.018000E+03   1.018000E+03   1.018000E+03   1.018000E+03   1.018000E+03   1.018000E+03
   1.016000E+03   1.016000E+03   1.016000E+03   1.016000E+03   1.016000E+03   1.016000E+03   1.016000E+03   1.016000E+03   1.016000E+03   1.016000E+03   1.016000E+03
   1.014000E+03   1.014000E+03   1.014000E+03   1.014000E+03   1.014000E+03   1.014000E+03   1.014000E+03   1.014000E+03   1.014000E+03   1.014000E+03   1.014000E+03
   1.012000E+03   1.012000E+03   1.012000E+03   1.012000E+03   1.012000E+03   1.012000E+03   1.012000E+03   1.012000E+03   1.012000E+03   1.012000E+03   1.012000E+03
   1.010000E+03   1.010000E+03   1.010000E+03   1.010000E+03   1.010000E+03   1.010000E+03   1.010000E+03   1.010000E+03   1.010000E+03   1.010000E+03   1.010000E+03
   1.008000E+03   1.008000E+03   1.008000E+03   1.008000E+03   1.008000E+03   1.008000E+03   1.008000E+03   1.008000E+03   1.008000E+03   1.008000E+03   1.008000E+03
   1.006000E+03   1.006000E+03   1.006000E+03   1.006000E+03   1.006000E+03   1.006000E+03   1.006000E+03   1.006000E+03   1.006000E+03   1.006000E+03   1.006000E+03
   1.004000E+03   1.004000E+03   1.004000E+03   1.004000E+03   1.004000E+03   1.004000E+03   1.004000E+03   1.004000E+03   1.004000E+03   1.004000E+03   1.004000E+03
   1.002000E+03   1.002000E+03   1.002000E+03   1.002000E+03   1.002000E+03   1.002000E+03   1.002000E+03   1.002000E+03   1.002000E+03   1.002000E+03   1.002000E+03
   9.810000E+02   9.810000E+02   9.810000E+02   9.810000E+02   9.810000E+02   9.810000E+02   9.810000E+02   9.810000E+02   9.810000E+02   9.810000E+02   9.810000E+02
